FoamFile
{
    version     2.0;
    format      ascii;
    class       dictionary;
    location    "constant";
    object      transportProperties;
}
// * * * * * * * * * * * * * * * * * * * * * * * * * * * * * * * * * * * * * //
// Re = U_inf * chord / nu = 1 * 1 / 3.333e-7 = 3e6

transportModel  Newtonian;

nu              [0 2 -1 0 0 0 0] 3.333e-07;

// ************************************************************************* //
