FoamFile
{
    version     2.0;
    format      ascii;
    class       dictionary;
    object      fvSchemes;
}
// ************************************************************************* //

ddtSchemes
{
    default         steadyState;
}

gradSchemes
{
    default         Gauss linear;
    grad(U)         Gauss linear;
}

divSchemes
{
    default                             none;
    div(phi,U)                          bounded Gauss linearUpwind grad(U);
    div(phi,k)                          bounded Gauss linearUpwind default;
    div(phi,omega)                      bounded Gauss linearUpwind default;
    div((nuEff*dev2(T(grad(U)))))       Gauss linear;
}

laplacianSchemes
{
    default         Gauss linear corrected;
}

interpolationSchemes
{
    default         linear;
}

snGradSchemes
{
    default         corrected;
}

wallDist
{
    method          meshWave;
}

// ************************************************************************* //
