FoamFile
{
    version     2.0;
    format      ascii;
    class       dictionary;
    object      fvSolution;
}
// ************************************************************************* //

solvers
{
    p
    {
        solver          GAMG;
        smoother        GaussSeidel;
        tolerance       1e-08;
        relTol          0.01;
    }

    U
    {
        solver          smoothSolver;
        smoother        symGaussSeidel;
        tolerance       1e-09;
        relTol          0.1;
    }

    "(k|omega)"
    {
        solver          smoothSolver;
        smoother        symGaussSeidel;
        tolerance       1e-09;
        relTol          0.1;
    }
}

SIMPLE
{
    nNonOrthogonalCorrectors 2;
    consistent              yes;   // SIMPLEC — faster convergence for external aero

    residualControl
    {
        p               1e-06;
        U               1e-06;
        "(k|omega)"     1e-06;
    }
}

relaxationFactors
{
    fields
    {
        p               0.7;
    }
    equations
    {
        U               0.7;
        k               0.7;
        omega           0.7;
    }
}

// ************************************************************************* //
